 ****** HSPICE -- A-2008.03 32-BIT (Feb 26 2008) winnt ******                   
  Copyright (C) 2008 Synopsys, Inc. All Rights Reserved.                        
  Unpublished-rights reserved under US copyright laws.
  This program is protected by law and is subject to the 
  terms and conditions of the license agreement found in:
    C:\synopsys\Hspice_A-2008.03\license.warn
  Use of this program is your acceptance to be bound by this 
  license agreement. HSPICE is the trademark of Synopsys, Inc.
  Input File: c:\users\ssa\desktop\hspice_inverter\q2\_1\part2.sp               
 Init: read install configuration file: C:\synopsys\Hspice_A-2008.03\meta.cfg
 Init: hspice initialization file: C:\synopsys\Hspice_A-2008.03\hspice.ini





 .include "c:\users\ssa\desktop\hspice_inverter\45nm_ptm.txt"
 * customized ptm 45nm nmos

 .model  nmos  nmos  level = 54

 +version = 4.0    binunit = 1    paramchk= 1    mobmod  = 0
 +capmod  = 2      igcmod  = 1    igbmod  = 1    geomod  = 1
 +diomod  = 1      rdsmod  = 0    rbodymod= 1    rgatemod= 1
 +permod  = 1      acnqsmod= 0    trnqsmod= 0

 * parameters related to the technology node
 +tnom = 27    epsrox = 3.9
 +eta0 = 0.0049    nfactor = 2.1    wint = 5e-09
 +cgso = 1.1e-10    cgdo = 1.1e-10    xl = -2e-08

 * parameters customized by the user
 +toxe = 1.75e-09    toxp = 1.1e-09    toxm = 1.75e-09    toxref = 1.75e-09
 +dtox = 6.5e-10    lint = 3.75e-09
 +vth0 = 0.469    k1 = 0.528    u0 = 0.04372    vsat = 147390
 +rdsw = 155    ndep = 3.28e+18    xj = 1.4e-08

 * secondary parameters
 +ll      = 0            wl      = 0            lln     = 1            wln     = 1          
 +lw      = 0            ww      = 0            lwn     = 1            wwn     = 1          
 +lwl     = 0            wwl     = 0            xpart   = 0               
 +k2      = 0.01         k3      = 0          
 +k3b     = 0            w0      = 2.5e-006     dvt0    = 1            dvt1    = 2       
 +dvt2    = -0.032       dvt0w   = 0            dvt1w   = 0            dvt2w   = 0          
 +dsub    = 0.1          minv    = 0.05         voffl   = 0            dvtp0   = 1.0e-009     
 +dvtp1   = 0.1          lpe0    = 0            lpeb    = 0               
 +ngate   = 2e+020       nsd     = 2e+020       phin    = 0          
 +cdsc    = 0.000        cdscb   = 0            cdscd   = 0            cit     = 0          
 +voff    = -0.13        etab    = 0          
 +vfb     = -0.55        ua      = 6e-010       ub      = 1.2e-018     
 +uc      = 0            a0      = 1.0          ags     = 1e-020     
 +a1      = 0            a2      = 1.0          b0      = 0            b1      = 0          
 +keta    = 0.04         dwg     = 0            dwb     = 0            pclm    = 0.04       
 +pdiblc1 = 0.001        pdiblc2 = 0.001        pdiblcb = -0.005       drout   = 0.5        
 +pvag    = 1e-020       delta   = 0.01         pscbe1  = 8.14e+008    pscbe2  = 1e-007     
 +fprout  = 0.2          pdits   = 0.08         pditsd  = 0.23         pditsl  = 2.3e+006   
 +rsh     = 5            rsw     = 85           rdw     = 85        
 +rdswmin = 0            rdwmin  = 0            rswmin  = 0            prwg    = 0          
 +prwb    = 6.8e-011     wr      = 1            alpha0  = 0.074        alpha1  = 0.005      
 +beta0   = 30           agidl   = 0.0002       bgidl   = 2.1e+009     cgidl   = 0.0002     
 +egidl   = 0.8          

 +aigbacc = 0.012        bigbacc = 0.0028       cigbacc = 0.002     
 +nigbacc = 1            aigbinv = 0.014        bigbinv = 0.004        cigbinv = 0.004      
 +eigbinv = 1.1          nigbinv = 3            aigc    = 0.012        bigc    = 0.0028     
 +cigc    = 0.002        aigsd   = 0.012        bigsd   = 0.0028       cigsd   = 0.002     
 +nigc    = 1            poxedge = 1            pigcd   = 1            ntox    = 1          

 +xrcrg1  = 12           xrcrg2  = 5          
 +cgbo    = 2.56e-011    cgdl    = 2.653e-10     
 +cgsl    = 2.653e-10    ckappas = 0.03         ckappad = 0.03         acde    = 1          
 +moin    = 15           noff    = 0.9          voffcv  = 0.02       

 +kt1     = -0.11        kt1l    = 0            kt2     = 0.022        ute     = -1.5       
 +ua1     = 4.31e-009    ub1     = 7.61e-018    uc1     = -5.6e-011    prt     = 0          
 +at      = 33000      

 +fnoimod = 1            tnoimod = 0          

 +jss     = 0.0001       jsws    = 1e-011       jswgs   = 1e-010       njs     = 1          
 +ijthsfwd= 0.01         ijthsrev= 0.001        bvs     = 10           xjbvs   = 1          
 +jsd     = 0.0001       jswd    = 1e-011       jswgd   = 1e-010       njd     = 1          
 +ijthdfwd= 0.01         ijthdrev= 0.001        bvd     = 10           xjbvd   = 1          
 +pbs     = 1            cjs     = 0.0005       mjs     = 0.5          pbsws   = 1          
 +cjsws   = 5e-010       mjsws   = 0.33         pbswgs  = 1            cjswgs  = 3e-010     
 +mjswgs  = 0.33         pbd     = 1            cjd     = 0.0005       mjd     = 0.5        
 +pbswd   = 1            cjswd   = 5e-010       mjswd   = 0.33         pbswgd  = 1          
 +cjswgd  = 5e-010       mjswgd  = 0.33         tpb     = 0.005        tcj     = 0.001      
 +tpbsw   = 0.005        tcjsw   = 0.001        tpbswg  = 0.005        tcjswg  = 0.001      
 +xtis    = 3            xtid    = 3          

 +dmcg    = 0e-006       dmci    = 0e-006       dmdg    = 0e-006       dmcgt   = 0e-007     
 +dwj     = 0.0e-008     xgw     = 0e-007       xgl     = 0e-008     

 +rshg    = 0.4          gbmin   = 1e-010       rbpb    = 5            rbpd    = 15         
 +rbps    = 15           rbdb    = 15           rbsb    = 15           ngcon   = 1       


 * customized ptm 45nm pmos

 .model  pmos  pmos  level = 54

 +version = 4.0    binunit = 1    paramchk= 1    mobmod  = 0
 +capmod  = 2      igcmod  = 1    igbmod  = 1    geomod  = 1
 +diomod  = 1      rdsmod  = 0    rbodymod= 1    rgatemod= 1
 +permod  = 1      acnqsmod= 0    trnqsmod= 0

 * parameters related to the technology node
 +tnom = 27    epsrox = 3.9
 +eta0 = 0.0049    nfactor = 2.1    wint = 5e-09
 +cgso = 1.1e-10    cgdo = 1.1e-10    xl = -2e-08

 * parameters customized by the user
 +toxe = 1.85e-09    toxp = 1.1e-09    toxm = 1.85e-09    toxref = 1.85e-09
 +dtox = 7.5e-10    lint = 3.75e-09
 +vth0 = -0.418    k1 = 0.488    u0 = 0.00439    vsat = 70000
 +rdsw = 155    ndep = 2.5e+18    xj = 1.4e-08

 *secondary parameters
 +ll      = 0            wl      = 0            lln     = 1            wln     = 1          
 +lw      = 0            ww      = 0            lwn     = 1            wwn     = 1          
 +lwl     = 0            wwl     = 0            xpart   = 0               
 +k2      = -0.01        k3      = 0          
 +k3b     = 0            w0      = 2.5e-006     dvt0    = 1            dvt1    = 2       
 +dvt2    = -0.032       dvt0w   = 0            dvt1w   = 0            dvt2w   = 0          
 +dsub    = 0.1          minv    = 0.05         voffl   = 0            dvtp0   = 1e-009     
 +dvtp1   = 0.05         lpe0    = 0            lpeb    = 0               
 +ngate   = 2e+020       nsd     = 2e+020       phin    = 0          
 +cdsc    = 0.000        cdscb   = 0            cdscd   = 0            cit     = 0          
 +voff    = -0.126       etab    = 0          
 +vfb     = 0.55         ua      = 2.0e-009     ub      = 0.5e-018     
 +uc      = 0            a0      = 1.0          ags     = 1e-020     
 +a1      = 0            a2      = 1            b0      = -1e-020      b1      = 0          
 +keta    = -0.047       dwg     = 0            dwb     = 0            pclm    = 0.12       
 +pdiblc1 = 0.001        pdiblc2 = 0.001        pdiblcb = 3.4e-008     drout   = 0.56       
 +pvag    = 1e-020       delta   = 0.01         pscbe1  = 8.14e+008    pscbe2  = 9.58e-007  
 +fprout  = 0.2          pdits   = 0.08         pditsd  = 0.23         pditsl  = 2.3e+006   
 +rsh     = 5            rsw     = 85           rdw     = 85        
 +rdswmin = 0            rdwmin  = 0            rswmin  = 0            prwg    = 3.22e-008  
 +prwb    = 6.8e-011     wr      = 1            alpha0  = 0.074        alpha1  = 0.005      
 +beta0   = 30           agidl   = 0.0002       bgidl   = 2.1e+009     cgidl   = 0.0002     
 +egidl   = 0.8          

 +aigbacc = 0.012        bigbacc = 0.0028       cigbacc = 0.002     
 +nigbacc = 1            aigbinv = 0.014        bigbinv = 0.004        cigbinv = 0.004      
 +eigbinv = 1.1          nigbinv = 3            aigc    = 0.69         bigc    = 0.0012     
 +cigc    = 0.0008       aigsd   = 0.0087       bigsd   = 0.0012       cigsd   = 0.0008     
 +nigc    = 1            poxedge = 1            pigcd   = 1            ntox    = 1 
          
 +xrcrg1  = 12           xrcrg2  = 5          
 +cgbo    = 2.56e-011    cgdl    = 2.653e-10
 +cgsl    = 2.653e-10    ckappas = 0.03         ckappad = 0.03         acde    = 1
 +moin    = 15           noff    = 0.9          voffcv  = 0.02

 +kt1     = -0.11        kt1l    = 0            kt2     = 0.022        ute     = -1.5       
 +ua1     = 4.31e-009    ub1     = 7.61e-018    uc1     = -5.6e-011    prt     = 0          
 +at      = 33000      

 +fnoimod = 1            tnoimod = 0          

 +jss     = 0.0001       jsws    = 1e-011       jswgs   = 1e-010       njs     = 1          
 +ijthsfwd= 0.01         ijthsrev= 0.001        bvs     = 10           xjbvs   = 1          
 +jsd     = 0.0001       jswd    = 1e-011       jswgd   = 1e-010       njd     = 1          
 +ijthdfwd= 0.01         ijthdrev= 0.001        bvd     = 10           xjbvd   = 1          
 +pbs     = 1            cjs     = 0.0005       mjs     = 0.5          pbsws   = 1          
 +cjsws   = 5e-010       mjsws   = 0.33         pbswgs  = 1            cjswgs  = 3e-010     
 +mjswgs  = 0.33         pbd     = 1            cjd     = 0.0005       mjd     = 0.5        
 +pbswd   = 1            cjswd   = 5e-010       mjswd   = 0.33         pbswgd  = 1          
 +cjswgd  = 5e-010       mjswgd  = 0.33         tpb     = 0.005        tcj     = 0.001      
 +tpbsw   = 0.005        tcjsw   = 0.001        tpbswg  = 0.005        tcjswg  = 0.001      
 +xtis    = 3            xtid    = 3          

 +dmcg    = 0e-006       dmci    = 0e-006       dmdg    = 0e-006       dmcgt   = 0e-007     
 +dwj     = 0.0e-008     xgw     = 0e-007       xgl     = 0e-008     

 +rshg    = 0.4          gbmin   = 1e-010       rbpb    = 5            rbpd    = 15         
  **warning** (C:\Users\ssa\Desktop\HSpice_Inverter\45nm_PTM.txt:84)   model pmos is not used in netlist

 .param      lmin=45n
 +beta=0.4
 +wp=2*lmin*beta
 +wn=2*lmin
 +vddvoltage=0v
 +vinvoltage=0.4v
 +vssvoltage=0v

 mnmos_1 vdd vgg vss vss nmos w=1u l=100n

 vvoltagesource_1 vdd 0 dc vddvoltage
 vvoltagesource_2 vgg 0 dc vinvoltage
 vvoltagesource_3 vss 0 dc vssvoltage



 ***************** tran ********************
 .dc vddvoltage 0 1 0.01
1****** HSPICE -- A-2008.03 32-BIT (Feb 26 2008) winnt ******                   
 ******  
 *cmos invertor*                                                                
  ******  mos   model parameters           tnom=  25.000 temp=  25.000          
 ******  
 
Model Name: nmos  

 BSIM4 Model (Level 54)

    MOBMOD = 0
    BINUNIT = 1
    PARAMCHK = 1
    CAPMOD = 2
    DIOMOD = 1
    RDSMOD = 0
    TRNQSMOD = 0
    ACNQSMOD = 0
    RBODYMOD = 1
    RGATEMOD = 1
    PERMOD = 1
    GEOMOD = 1
    RGEOMOD = 0
    FNOIMOD = 1
    TNOIMOD = 0
    IGCMOD = 1
    IGBMOD = 1
    STIMOD = 0
    VERSION =      4 
    TOXREF = 1.75e-009 
    TOXE = 1.75e-009 
    TOXP = 1.1e-009 
    TOXM = 1.75e-009 
    DTOX = 6.5e-010 
    EPSROX =    3.9 
    CDSC =      0 
    CDSCB =      0 
    CDSCD =      0 
    CIT =      0 
    NFACTOR =    2.1 
    XJ = 1.4e-008 
    VSAT = 1.474e+005 
    A0 =      1 
    AGS = 1e-020 
    A1 =      0 
    A2 =      1 
    AT = 3.3e+004 
    KETA =   0.04 
    NSUB = 6e+016 
    NDEP = 3.28e+018 
    NSD = 2e+020 
    NGATE = 2e+020 
    GAMMA1 =      0 
    GAMMA2 =      0 
    VBX =      0 
    VBM =     -3 
    XT = 1.55e-007 
    K1 =  0.528 
    KT1 =  -0.11 
    KT1L =      0 
    KT2 =  0.022 
    K2 =   0.01 
    K3 =      0 
    K3B =      0 
    LPE0 =      0 
    LPEB =      0 
    DVTP0 = 1e-009 
    DVTP1 =    0.1 
    W0 = 2.5e-006 
    DVT0 =      1 
    DVT1 =      2 
    DVT2 = -0.032 
    DVT0W =      0 
    DVT1W =      0 
    DVT2W =      0 
    DROUT =    0.5 
    DSUB =    0.1 
    VTH0 =  0.469 
    EU =   1.67 
    UA = 6e-010 
    UA1 = 4.31e-009 
    UB = 1.2e-018 
    UB1 = 7.61e-018 
    UC =      0 
    UC1 = -5.6e-011 
    U0 = 0.04372 
    UTE =   -1.5 
    VOFF =  -0.13 
    VOFFL =      0 
    MINV =   0.05 
    FPROUT =    0.2 
    PDITS =   0.08 
    PDITSD =   0.23 
    PDITSL = 2.3e+006 
    DELTA =   0.01 
    RDSW =    155 
    RDSWMIN =      0 
    RDWMIN =      0 
    RSWMIN =      0 
    RDW =     85 
    RSW =     85 
    PRWG =      0 
    PRWB = 6.8e-011 
    PRT =      0 
    ETA0 = 0.0049 
    ETAB =      0 
    PCLM =   0.04 
    PDIBLC1 =  0.001 
    PDIBLC2 =  0.001 
    PDIBLCB = -0.005 
    PSCBE1 = 8.14e+008 
    PSCBE2 = 1e-007 
    PVAG = 1e-020 
    WR =      1 
    DWG =      0 
    DWB =      0 
    XW =      0 
    XWREF =      0 
    XL = -2e-008 
    XLREF = -2e-008 
    B0 =      0 
    B1 =      0 
    ALPHA0 =  0.074 
    ALPHA1 =  0.005 
    AGIDL = 0.0002 
    BGIDL = 2.1e+009 
    CGIDL = 0.0002 
    PHIN =      0 
    EGIDL =    0.8 
    AIGC =  0.012 
    BIGC = 0.0028 
    CIGC =  0.002 
    AIGSD =  0.012 
    BIGSD = 0.0028 
    CIGSD =  0.002 
    AIGBACC =  0.012 
    BIGBACC = 0.0028 
    CIGBACC =  0.002 
    AIGBINV =  0.014 
    BIGBINV =  0.004 
    CIGBINV =  0.004 
    NIGC =      1 
    NIGBINV =      3 
    NIGBACC =      1 
    NTOX =      1 
    EIGBINV =    1.1 
    PIGCD =      1 
    POXEDGE =      1 
    XRCRG1 =     12 
    TNOIA =    1.5 
    TNOIB =    3.5 
    NTNOI =      1 
    XRCRG2 =      5 
    BETA0 =     30 
    IJTHDFWD =   0.01 
    IJTHSFWD =   0.01 
    IJTHDREV =  0.001 
    IJTHSREV =  0.001 
    XJBVD =      1 
    XJBVS =      1 
    BVD =     10 
    BVS =     10 
    VFB =  -0.55 
    GBMIN = 1e-010 
    RBDB =     15 
    RBPB =      5 
    RBSB =     15 
    RBPS =     15 
    RBPD =     15 
    CGSL = 2.653e-010 
    CGDL = 2.653e-010 
    CKAPPAS =   0.03 
    CKAPPAD =   0.03 
    CF = 1.195e-010 
    CLC = 1e-007 
    CLE =    0.6 
    DWC = 5e-009 
    DLC = 3.75e-009 
    DLCIG = 3.75e-009 
    DWJ =      0 
    VFBCV =     -1 
    ACDE =      1 
    MOIN =     15 
    NOFF =    0.9 
    VOFFCV =   0.02 
    DMCG =      0 
    DMCI =      0 
    DMDG =      0 
    DMCGT =      0 
    XGW =      0 
    XGL =      0 
    RSHG =    0.4 
    NGCON =      1 
    TCJ =  0.001 
    TPB =  0.005 
    TCJSW =  0.001 
    TPBSW =  0.005 
    TCJSWG =  0.001 
    TPBSWG =  0.005 
    SK0 =      0 
    SK1 =      0 
    SK2 =      0 
    SL = 2e-006 
    SW = 2e-006 
    K =      0 
    TNOM =  300.1 
    CGSO = 1.1e-010 
    CGDO = 1.1e-010 
    CGBO = 2.56e-011 
    XPART =      0 
    RSH =      5 
    JSS = 0.0001 
    JSWS = 1e-011 
    JSWGS = 1e-010 
    PBS =      1 
    MJS =    0.5 
    PBSWS =      1 
    MJSWS =   0.33 
    CJS = 0.0005 
    CJSWS = 5e-010 
    NJS =      1 
    PBSWGS =      1 
    MJSWGS =   0.33 
    CJSWGS = 3e-010 
    XTIS =      3 
    JSD = 0.0001 
    JSWD = 1e-011 
    JSWGD = 1e-010 
    PBD =      1 
    MJD =    0.5 
    PBSWD =      1 
    MJSWD =   0.33 
    CJD = 0.0005 
    CJSWD = 5e-010 
    NJD =      1 
    PBSWGD =      1 
    MJSWGD =   0.33 
    CJSWGD = 5e-010 
    XTID =      3 
    LMLT =      1 
    WMLT =      1 
    LINT = 3.75e-009 
    LL =      0 
    LLC =      0 
    LLN =      1 
    LW =      0 
    LWC =      0 
    LWN =      1 
    LWL =      0 
    LWLC =      0 
    LMIN =      0 
    LMAX =      1 
    WINT = 5e-009 
    WL =      0 
    WLC =      0 
    WLN =      1 
    WW =      0 
    WWC =      0 
    WWN =      1 
    WWL =      0 
    WWLC =      0 
    WMIN =      0 
    WMAX =      1 
    NOIA = 6.25e+041 
    NOIB = 3.125e+026 
    NOIC = 8.75e+009 
    EM = 4.1e+007 
    EF =      1 
    AF =      1 
    KF =      0 
    TRS =      0 
    TRD =      0 
 

 Warning:  Acde = 1 may be too small in BSIM4 model nmos with w=1e-006 l=1e-007.

 
      

          ***** job concluded
1****** HSPICE -- A-2008.03 32-BIT (Feb 26 2008) winnt ******                   
 ******  
 *cmos invertor*                                                                
  ******  job statistics summary           tnom=  25.000 temp=  25.000          
 ******  

           total memory used        159 kbytes

  # nodes =       8 # elements=       4
  # diodes=       0 # bjts    =       0 # jfets   =       0 # mosfets =       1
  # va device =       0

    analysis           time    # points   tot. iter  conv.iter

    op point           0.00           1           0
    dc sweep           0.00         101         204
    readin             0.01
    errchk             0.01
    setup              0.01
    output             0.00
           total cpu time          0.04 seconds
           total elapsed time         1 seconds
               job started at  11:47:08 10/21/2019
               job ended   at  11:47:08 10/21/2019


 Init: hspice initialization file: C:\synopsys\Hspice_A-2008.03\hspice.ini
