 ****** HSPICE -- A-2008.03 32-BIT (Feb 26 2008) winnt ******                   
  Copyright (C) 2008 Synopsys, Inc. All Rights Reserved.                        
  Unpublished-rights reserved under US copyright laws.
  This program is protected by law and is subject to the 
  terms and conditions of the license agreement found in:
    C:\synopsys\Hspice_A-2008.03\license.warn
  Use of this program is your acceptance to be bound by this 
  license agreement. HSPICE is the trademark of Synopsys, Inc.
  Input File: c:\users\ssa\desktop\hspice_inverter\q2\_3\part3.sp               
 Init: read install configuration file: C:\synopsys\Hspice_A-2008.03\meta.cfg
 Init: hspice initialization file: C:\synopsys\Hspice_A-2008.03\hspice.ini





 .include "c:\users\ssa\desktop\hspice_inverter\45nm_ptm.txt"
 * customized ptm 45nm nmos

 .model  nmos  nmos  level = 54

 +version = 4.0    binunit = 1    paramchk= 1    mobmod  = 0
 +capmod  = 2      igcmod  = 1    igbmod  = 1    geomod  = 1
 +diomod  = 1      rdsmod  = 0    rbodymod= 1    rgatemod= 1
 +permod  = 1      acnqsmod= 0    trnqsmod= 0

 * parameters related to the technology node
 +tnom = 27    epsrox = 3.9
 +eta0 = 0.0049    nfactor = 2.1    wint = 5e-09
 +cgso = 1.1e-10    cgdo = 1.1e-10    xl = -2e-08

 * parameters customized by the user
 +toxe = 1.75e-09    toxp = 1.1e-09    toxm = 1.75e-09    toxref = 1.75e-09
 +dtox = 6.5e-10    lint = 3.75e-09
 +vth0 = 0.469    k1 = 0.528    u0 = 0.04372    vsat = 147390
 +rdsw = 155    ndep = 3.28e+18    xj = 1.4e-08

 * secondary parameters
 +ll      = 0            wl      = 0            lln     = 1            wln     = 1          
 +lw      = 0            ww      = 0            lwn     = 1            wwn     = 1          
 +lwl     = 0            wwl     = 0            xpart   = 0               
 +k2      = 0.01         k3      = 0          
 +k3b     = 0            w0      = 2.5e-006     dvt0    = 1            dvt1    = 2       
 +dvt2    = -0.032       dvt0w   = 0            dvt1w   = 0            dvt2w   = 0          
 +dsub    = 0.1          minv    = 0.05         voffl   = 0            dvtp0   = 1.0e-009     
 +dvtp1   = 0.1          lpe0    = 0            lpeb    = 0               
 +ngate   = 2e+020       nsd     = 2e+020       phin    = 0          
 +cdsc    = 0.000        cdscb   = 0            cdscd   = 0            cit     = 0          
 +voff    = -0.13        etab    = 0          
 +vfb     = -0.55        ua      = 6e-010       ub      = 1.2e-018     
 +uc      = 0            a0      = 1.0          ags     = 1e-020     
 +a1      = 0            a2      = 1.0          b0      = 0            b1      = 0          
 +keta    = 0.04         dwg     = 0            dwb     = 0            pclm    = 0.04       
 +pdiblc1 = 0.001        pdiblc2 = 0.001        pdiblcb = -0.005       drout   = 0.5        
 +pvag    = 1e-020       delta   = 0.01         pscbe1  = 8.14e+008    pscbe2  = 1e-007     
 +fprout  = 0.2          pdits   = 0.08         pditsd  = 0.23         pditsl  = 2.3e+006   
 +rsh     = 5            rsw     = 85           rdw     = 85        
 +rdswmin = 0            rdwmin  = 0            rswmin  = 0            prwg    = 0          
 +prwb    = 6.8e-011     wr      = 1            alpha0  = 0.074        alpha1  = 0.005      
 +beta0   = 30           agidl   = 0.0002       bgidl   = 2.1e+009     cgidl   = 0.0002     
 +egidl   = 0.8          

 +aigbacc = 0.012        bigbacc = 0.0028       cigbacc = 0.002     
 +nigbacc = 1            aigbinv = 0.014        bigbinv = 0.004        cigbinv = 0.004      
 +eigbinv = 1.1          nigbinv = 3            aigc    = 0.012        bigc    = 0.0028     
 +cigc    = 0.002        aigsd   = 0.012        bigsd   = 0.0028       cigsd   = 0.002     
 +nigc    = 1            poxedge = 1            pigcd   = 1            ntox    = 1          

 +xrcrg1  = 12           xrcrg2  = 5          
 +cgbo    = 2.56e-011    cgdl    = 2.653e-10     
 +cgsl    = 2.653e-10    ckappas = 0.03         ckappad = 0.03         acde    = 1          
 +moin    = 15           noff    = 0.9          voffcv  = 0.02       

 +kt1     = -0.11        kt1l    = 0            kt2     = 0.022        ute     = -1.5       
 +ua1     = 4.31e-009    ub1     = 7.61e-018    uc1     = -5.6e-011    prt     = 0          
 +at      = 33000      

 +fnoimod = 1            tnoimod = 0          

 +jss     = 0.0001       jsws    = 1e-011       jswgs   = 1e-010       njs     = 1          
 +ijthsfwd= 0.01         ijthsrev= 0.001        bvs     = 10           xjbvs   = 1          
 +jsd     = 0.0001       jswd    = 1e-011       jswgd   = 1e-010       njd     = 1          
 +ijthdfwd= 0.01         ijthdrev= 0.001        bvd     = 10           xjbvd   = 1          
 +pbs     = 1            cjs     = 0.0005       mjs     = 0.5          pbsws   = 1          
 +cjsws   = 5e-010       mjsws   = 0.33         pbswgs  = 1            cjswgs  = 3e-010     
 +mjswgs  = 0.33         pbd     = 1            cjd     = 0.0005       mjd     = 0.5        
 +pbswd   = 1            cjswd   = 5e-010       mjswd   = 0.33         pbswgd  = 1          
 +cjswgd  = 5e-010       mjswgd  = 0.33         tpb     = 0.005        tcj     = 0.001      
 +tpbsw   = 0.005        tcjsw   = 0.001        tpbswg  = 0.005        tcjswg  = 0.001      
 +xtis    = 3            xtid    = 3          

 +dmcg    = 0e-006       dmci    = 0e-006       dmdg    = 0e-006       dmcgt   = 0e-007     
 +dwj     = 0.0e-008     xgw     = 0e-007       xgl     = 0e-008     

 +rshg    = 0.4          gbmin   = 1e-010       rbpb    = 5            rbpd    = 15         
 +rbps    = 15           rbdb    = 15           rbsb    = 15           ngcon   = 1       
  **warning** (C:\Users\ssa\Desktop\HSpice_Inverter\45nm_PTM.txt:3)   model nmos is not used in netlist


 * customized ptm 45nm pmos

 .model  pmos  pmos  level = 54

 +version = 4.0    binunit = 1    paramchk= 1    mobmod  = 0
 +capmod  = 2      igcmod  = 1    igbmod  = 1    geomod  = 1
 +diomod  = 1      rdsmod  = 0    rbodymod= 1    rgatemod= 1
 +permod  = 1      acnqsmod= 0    trnqsmod= 0

 * parameters related to the technology node
 +tnom = 27    epsrox = 3.9
 +eta0 = 0.0049    nfactor = 2.1    wint = 5e-09
 +cgso = 1.1e-10    cgdo = 1.1e-10    xl = -2e-08

 * parameters customized by the user
 +toxe = 1.85e-09    toxp = 1.1e-09    toxm = 1.85e-09    toxref = 1.85e-09
 +dtox = 7.5e-10    lint = 3.75e-09
 +vth0 = -0.418    k1 = 0.488    u0 = 0.00439    vsat = 70000
 +rdsw = 155    ndep = 2.5e+18    xj = 1.4e-08

 *secondary parameters
 +ll      = 0            wl      = 0            lln     = 1            wln     = 1          
 +lw      = 0            ww      = 0            lwn     = 1            wwn     = 1          
 +lwl     = 0            wwl     = 0            xpart   = 0               
 +k2      = -0.01        k3      = 0          
 +k3b     = 0            w0      = 2.5e-006     dvt0    = 1            dvt1    = 2       
 +dvt2    = -0.032       dvt0w   = 0            dvt1w   = 0            dvt2w   = 0          
 +dsub    = 0.1          minv    = 0.05         voffl   = 0            dvtp0   = 1e-009     
 +dvtp1   = 0.05         lpe0    = 0            lpeb    = 0               
 +ngate   = 2e+020       nsd     = 2e+020       phin    = 0          
 +cdsc    = 0.000        cdscb   = 0            cdscd   = 0            cit     = 0          
 +voff    = -0.126       etab    = 0          
 +vfb     = 0.55         ua      = 2.0e-009     ub      = 0.5e-018     
 +uc      = 0            a0      = 1.0          ags     = 1e-020     
 +a1      = 0            a2      = 1            b0      = -1e-020      b1      = 0          
 +keta    = -0.047       dwg     = 0            dwb     = 0            pclm    = 0.12       
 +pdiblc1 = 0.001        pdiblc2 = 0.001        pdiblcb = 3.4e-008     drout   = 0.56       
 +pvag    = 1e-020       delta   = 0.01         pscbe1  = 8.14e+008    pscbe2  = 9.58e-007  
 +fprout  = 0.2          pdits   = 0.08         pditsd  = 0.23         pditsl  = 2.3e+006   
 +rsh     = 5            rsw     = 85           rdw     = 85        
 +rdswmin = 0            rdwmin  = 0            rswmin  = 0            prwg    = 3.22e-008  
 +prwb    = 6.8e-011     wr      = 1            alpha0  = 0.074        alpha1  = 0.005      
 +beta0   = 30           agidl   = 0.0002       bgidl   = 2.1e+009     cgidl   = 0.0002     
 +egidl   = 0.8          

 +aigbacc = 0.012        bigbacc = 0.0028       cigbacc = 0.002     
 +nigbacc = 1            aigbinv = 0.014        bigbinv = 0.004        cigbinv = 0.004      
 +eigbinv = 1.1          nigbinv = 3            aigc    = 0.69         bigc    = 0.0012     
 +cigc    = 0.0008       aigsd   = 0.0087       bigsd   = 0.0012       cigsd   = 0.0008     
 +nigc    = 1            poxedge = 1            pigcd   = 1            ntox    = 1 
          
 +xrcrg1  = 12           xrcrg2  = 5          
 +cgbo    = 2.56e-011    cgdl    = 2.653e-10
 +cgsl    = 2.653e-10    ckappas = 0.03         ckappad = 0.03         acde    = 1
 +moin    = 15           noff    = 0.9          voffcv  = 0.02

 +kt1     = -0.11        kt1l    = 0            kt2     = 0.022        ute     = -1.5       
 +ua1     = 4.31e-009    ub1     = 7.61e-018    uc1     = -5.6e-011    prt     = 0          
 +at      = 33000      

 +fnoimod = 1            tnoimod = 0          

 +jss     = 0.0001       jsws    = 1e-011       jswgs   = 1e-010       njs     = 1          
 +ijthsfwd= 0.01         ijthsrev= 0.001        bvs     = 10           xjbvs   = 1          
 +jsd     = 0.0001       jswd    = 1e-011       jswgd   = 1e-010       njd     = 1          
 +ijthdfwd= 0.01         ijthdrev= 0.001        bvd     = 10           xjbvd   = 1          
 +pbs     = 1            cjs     = 0.0005       mjs     = 0.5          pbsws   = 1          
 +cjsws   = 5e-010       mjsws   = 0.33         pbswgs  = 1            cjswgs  = 3e-010     
 +mjswgs  = 0.33         pbd     = 1            cjd     = 0.0005       mjd     = 0.5        
 +pbswd   = 1            cjswd   = 5e-010       mjswd   = 0.33         pbswgd  = 1          
 +cjswgd  = 5e-010       mjswgd  = 0.33         tpb     = 0.005        tcj     = 0.001      
 +tpbsw   = 0.005        tcjsw   = 0.001        tpbswg  = 0.005        tcjswg  = 0.001      
 +xtis    = 3            xtid    = 3          

 +dmcg    = 0e-006       dmci    = 0e-006       dmdg    = 0e-006       dmcgt   = 0e-007     
 +dwj     = 0.0e-008     xgw     = 0e-007       xgl     = 0e-008     

 +rshg    = 0.4          gbmin   = 1e-010       rbpb    = 5            rbpd    = 15         
  **warning** (C:\Users\ssa\Desktop\HSpice_Inverter\45nm_PTM.txt:84)   model pmos is not used in netlist

 .param      lmin=45n
 +beta=0.4
 +wp=2*lmin*beta
 +wn=2*lmin
 +vddvoltage=0v
 +vinvoltage=1v
 +vssvoltage=0v

 .model nmos_simple nmos (level=1
 + vt0=0.377 kn=2.39e-004 lambda=0.394 phi=0.6)

 mnmos_1 vdd vgg vss vss nmos_simple w=1u l=100n

 vvoltagesource_1 vdd 0 dc vddvoltage
 vvoltagesource_2 vgg 0 dc vinvoltage
 vvoltagesource_3 vss 0 dc vssvoltage



 ***************** tran ********************
 .dc vddvoltage 0 1 0.01
1****** HSPICE -- A-2008.03 32-BIT (Feb 26 2008) winnt ******                   
 ******  
 *cmos invertor*                                                                
  ******  mos   model parameters           tnom=  25.000 temp=  25.000          
 ******  
 ***************************************************************************
 *** common model parameters  model name:   0:nmos_sim model type:nmos   ***
 ***************************************************************************
     names  values   units     names  values   units     names  values   units
     -----  ------   -----     -----  ------   -----     -----  ------   -----

   1*** geometry parameters ***
       ld=   0.    meters      lmlt=   1.00                wd=   0.    meters 
     wmlt=   1.00                xl=   0.    meters        xw=   0.    meters 
     lref=   0.    meters      wref=   0.    meters      lref=   0.    meters 
     wref=   0.    meters     xlref=   0.    meters     xwref=   0.    meters 
     lmin=   0.    meters      wmin=   0.    meters      lmax=   0.    meters 
     wmax=   0.    meters 

   2*** threshold voltage parameters ***
      vto= 377.00m volts        nss=   0.    1/cm**2      tpg=   1.00         
      phi= 600.00m volts      gamma= 527.63m v**0.5      bulk=  gnd           
    ngate=   0.    cm**3       nsub= 1.0e+15 1/cm**3   delvto=   0.    volts  

   3*** gate overlap capacitance parameters ***
     cgbo=   0.    f/meter     cgdo=   0.    f/meter     cgso=   0.    f/meter
     meto=   0.    meters 

   4*** gate capacitance parameters ***
    capop=   2.00               cf1=   0.    volts        cf2= 100.00m volts  
      cf3=   1.00  volts        cf4=  50.00               cf5= 666.67m        
      cf6= 500.00               xqc= 500.00m              tox= 100.00n meters 
      cox= 345.31u f/m**2 

   5*** diffusion parasitic parameters ***
      acm=   0.                  is=  10.00f amps          js=   0.    a/m**2 
      jsw=   0.    amp/m        nds=   1.00               cbd=   0.    farad  
      cbs=   0.    farad         cj= 101.85u f/m**2      cjsw=   0.    f/m    
   cjgate=   0.    f/m           mj= 500.00m             mjsw= 330.00m        
       pb= 800.00m volts        php= 800.00m volts         tt=   0.    secs   
     hdif=   0.    meters      ldif=   0.    meters        rd=   0.    ohms   
       rs=   0.    ohms         rsh=   0.    ohms/sq       fc=   0.           
    alpha=   0.                 vcr=   0.    volts      iirat=   0.           
      rdc=   0.    ohms         rsc=   0.    ohms           n=   1.00         
     vnds=  -1.00  volts  

   6*** temperature effect parameters ***
     tlev=   0.               tlevc=   0.                  eg=   1.11  ev     
     gap1= 702.00u ev/deg      gap2=   1.11k deg          xti=   0.           
      bex=  -1.50               tcv=   0.    v/deg k      trd=   0.    /deg   
      trs=   0.    /deg         cta=   0.    /deg         ctp=   0.    /deg   

   7*** noise parameters ***
       kf=   0.                  af=   1.00              nlev=   2.00         
   gdsnoi=   1.00         

   ***  level  1  model parameters  ***

   lambda= 394.00m /v            kp=  20.72u a/v**2 
 
      

          ***** job concluded
1****** HSPICE -- A-2008.03 32-BIT (Feb 26 2008) winnt ******                   
 ******  
 *cmos invertor*                                                                
  ******  job statistics summary           tnom=  25.000 temp=  25.000          
 ******  

           total memory used        157 kbytes

  # nodes =       4 # elements=       4
  # diodes=       0 # bjts    =       0 # jfets   =       0 # mosfets =       1
  # va device =       0

    analysis           time    # points   tot. iter  conv.iter

    op point           0.00           1           0
    dc sweep           0.00         101         203
    readin             0.01
    errchk             0.00
    setup              0.01
    output             0.00
           total cpu time          0.04 seconds
           total elapsed time         1 seconds
               job started at  12:09:22 10/21/2019
               job ended   at  12:09:22 10/21/2019


 Init: hspice initialization file: C:\synopsys\Hspice_A-2008.03\hspice.ini
